test/data/enwl/networks/network_18/Feeder_3/Loads.dss
New Load.LOAD1 Phases=1 Bus1=225.3 kV=0.23 kW=1 PF=0.95
New Load.LOAD2 Phases=1 Bus1=254.3 kV=0.23 kW=1 PF=0.95
New Load.LOAD3 Phases=1 Bus1=261.1 kV=0.23 kW=1 PF=0.95
New Load.LOAD4 Phases=1 Bus1=328.2 kV=0.23 kW=1 PF=0.95
New Load.LOAD5 Phases=1 Bus1=340.2 kV=0.23 kW=1 PF=0.95
New Load.LOAD6 Phases=1 Bus1=361.2 kV=0.23 kW=1 PF=0.95
New Load.LOAD7 Phases=1 Bus1=424.2 kV=0.23 kW=1 PF=0.95
New Load.LOAD8 Phases=1 Bus1=426.3 kV=0.23 kW=1 PF=0.95
New Load.LOAD9 Phases=1 Bus1=560.3 kV=0.23 kW=1 PF=0.95
New Load.LOAD10 Phases=1 Bus1=595.2 kV=0.23 kW=1 PF=0.95
New Load.LOAD11 Phases=1 Bus1=601.1 kV=0.23 kW=1 PF=0.95
New Load.LOAD12 Phases=1 Bus1=614.1 kV=0.23 kW=1 PF=0.95
New Load.LOAD13 Phases=1 Bus1=631.3 kV=0.23 kW=1 PF=0.95
New Load.LOAD14 Phases=1 Bus1=642.3 kV=0.23 kW=1 PF=0.95
New Load.LOAD15 Phases=1 Bus1=648.2 kV=0.23 kW=1 PF=0.95
New Load.LOAD16 Phases=1 Bus1=690.3 kV=0.23 kW=1 PF=0.95
New Load.LOAD17 Phases=1 Bus1=701.1 kV=0.23 kW=1 PF=0.95
New Load.LOAD18 Phases=1 Bus1=713.1 kV=0.23 kW=1 PF=0.95
New Load.LOAD19 Phases=1 Bus1=719.1 kV=0.23 kW=1 PF=0.95
New Load.LOAD20 Phases=1 Bus1=722.2 kV=0.23 kW=1 PF=0.95
New Load.LOAD21 Phases=1 Bus1=738.1 kV=0.23 kW=1 PF=0.95
New Load.LOAD22 Phases=1 Bus1=751.2 kV=0.23 kW=1 PF=0.95
New Load.LOAD23 Phases=1 Bus1=785.3 kV=0.23 kW=1 PF=0.95
New Load.LOAD24 Phases=1 Bus1=808.2 kV=0.23 kW=1 PF=0.95
New Load.LOAD25 Phases=1 Bus1=810.1 kV=0.23 kW=1 PF=0.95
New Load.LOAD26 Phases=1 Bus1=882.3 kV=0.23 kW=1 PF=0.95
New Load.LOAD27 Phases=1 Bus1=905.2 kV=0.23 kW=1 PF=0.95
New Load.LOAD28 Phases=1 Bus1=914.1 kV=0.23 kW=1 PF=0.95
New Load.LOAD29 Phases=1 Bus1=925.2 kV=0.23 kW=1 PF=0.95
New Load.LOAD30 Phases=1 Bus1=933.1 kV=0.23 kW=1 PF=0.95
New Load.LOAD31 Phases=1 Bus1=950.1 kV=0.23 kW=1 PF=0.95
New Load.LOAD32 Phases=1 Bus1=985.3 kV=0.23 kW=1 PF=0.95
New Load.LOAD33 Phases=1 Bus1=991.2 kV=0.23 kW=1 PF=0.95
New Load.LOAD34 Phases=1 Bus1=1001.2 kV=0.23 kW=1 PF=0.95
New Load.LOAD35 Phases=1 Bus1=1063.3 kV=0.23 kW=1 PF=0.95
New Load.LOAD36 Phases=1 Bus1=1070.3 kV=0.23 kW=1 PF=0.95
New Load.LOAD37 Phases=1 Bus1=1078.3 kV=0.23 kW=1 PF=0.95
New Load.LOAD38 Phases=1 Bus1=1083.2 kV=0.23 kW=1 PF=0.95
New Load.LOAD39 Phases=1 Bus1=1084.3 kV=0.23 kW=1 PF=0.95
New Load.LOAD40 Phases=1 Bus1=1086.3 kV=0.23 kW=1 PF=0.95
New Load.LOAD41 Phases=1 Bus1=1094.3 kV=0.23 kW=1 PF=0.95
New Load.LOAD42 Phases=1 Bus1=1111.1 kV=0.23 kW=1 PF=0.95
New Load.LOAD43 Phases=1 Bus1=1188.3 kV=0.23 kW=1 PF=0.95
New Load.LOAD44 Phases=1 Bus1=1192.3 kV=0.23 kW=1 PF=0.95
New Load.LOAD45 Phases=1 Bus1=1209.1 kV=0.23 kW=1 PF=0.95
New Load.LOAD46 Phases=1 Bus1=1350.3 kV=0.23 kW=1 PF=0.95
New Load.LOAD47 Phases=1 Bus1=1362.2 kV=0.23 kW=1 PF=0.95
New Load.LOAD48 Phases=1 Bus1=1428.2 kV=0.23 kW=1 PF=0.95
New Load.LOAD49 Phases=1 Bus1=1452.2 kV=0.23 kW=1 PF=0.95
New Load.LOAD50 Phases=1 Bus1=1456.1 kV=0.23 kW=1 PF=0.95
New Load.LOAD51 Phases=1 Bus1=1490.1 kV=0.23 kW=1 PF=0.95